<?xml version="1.0" encoding="UTF-8"?>

<!-- generated on 2024-11-03 18:16:36 by Eclipse SUMO polyconvert Version 1.11.0
<configuration xmlns:xsi="http://www.w3.org/2001/XMLSchema-instance" xsi:noNamespaceSchemaLocation="http://sumo.dlr.de/xsd/polyconvertConfiguration.xsd">

    <input>
        <net-file value="osm.net.xml"/>
        <osm-files value="osm_bbox.osm.xml"/>
        <osm.keep-full-type value="true"/>
        <type-file value="/home/veins/src/sumo-1.11.0/data/typemap/osmPolyconvert.typ.xml"/>
    </input>

    <output>
        <output-file value="osm.poly.xml"/>
    </output>

    <processing>
        <poi-layer-offset value="5"/>
    </processing>

    <report>
        <verbose value="true"/>
    </report>

</configuration>
-->

<additional xmlns:xsi="http://www.w3.org/2001/XMLSchema-instance" xsi:noNamespaceSchemaLocation="http://sumo.dlr.de/xsd/additional_file.xsd">
    <location netOffset="-409276.15,-5653896.18" convBoundary="-1442.79,-848.13,2060.65,1926.68" origBoundary="13.685882,51.021595,13.735142,51.047092" projParameter="+proj=utm +zone=33 +ellps=WGS84 +datum=WGS84 +units=m +no_defs"/>

    <poly id="100319579" type="leisure.playground" color="207,245,201" fill="1" layer="-2.00" shape="102.223741,311.878124 100.319550,314.881439 99.938084,318.325221 101.359992,321.815233 104.100848,324.125291 107.457533,325.156496 110.953048,324.505653 133.670196,304.063135 135.194036,301.767269 135.060371,298.944302 133.299600,296.528057 130.630638,295.518146 127.909505,295.932929 102.223741,311.878124"/>
    <poly id="102616836" type="landuse.railway" color="194,194,130" fill="1" layer="-3.00" shape="219.910929,720.308265 192.603644,688.440283 178.231592,656.334572 155.305858,595.191383 90.956079,471.605777 137.198036,446.857448 173.741267,513.390240 205.937075,572.024059 271.613320,691.082851 266.018175,694.373202 243.787821,706.898014 219.910929,720.308265"/>
    <poly id="102618250" type="amenity.parking" color="184,184,179" fill="1" layer="-1.00" shape="212.934458,433.794951 182.599728,450.177159 174.048443,454.887575 169.829091,457.052706 185.380743,484.799652 231.986241,459.567509 217.069708,431.631330 212.934458,433.794951"/>
    <poly id="1040806400" type="building" color="255,230,230" fill="1" layer="-1.00" shape="354.629211,256.390088 359.933638,263.716520 369.762591,256.637075 364.451159,249.310756 354.629211,256.390088"/>
    <poly id="1047087399" type="landuse.construction" color="194,194,130" fill="1" layer="-3.00" shape="172.991081,239.292674 187.445690,256.035706 232.149221,218.200938 219.158195,201.721350 172.991081,239.292674"/>
    <poly id="1089703702" type="amenity.parking" color="184,184,179" fill="1" layer="-1.00" shape="245.465591,600.074118 257.579941,623.821475 285.170665,608.588922 317.232748,585.547599 304.835909,569.291011 291.170209,544.258159 270.030385,555.818267 279.764190,575.792077 281.690527,580.463493 245.465591,600.074118"/>
    <poly id="1089704823" type="landuse.brownfield" color="194,194,130" fill="1" layer="-3.00" shape="343.611927,691.057345 328.881030,664.441290 306.212671,635.127764 315.703882,628.832730 304.429941,610.609921 361.519883,568.933219 404.835640,627.518313 343.611927,691.057345"/>
    <poly id="1095354073" type="landuse.brownfield" color="194,194,130" fill="1" layer="-3.00" shape="490.464600,457.382279 521.687727,434.390307 504.814660,411.604198 473.591463,434.596270 490.464600,457.382279"/>
    <poly id="112607844" type="building" color="255,230,230" fill="1" layer="-1.00" shape="230.840272,475.026677 241.851246,468.994099 257.135843,496.734803 259.796505,495.275557 265.751136,506.094335 263.097490,507.553455 274.723898,528.662060 274.050020,529.029803 263.706006,534.694692 230.840272,475.026677"/>
    <poly id="112607860" type="building" color="255,230,230" fill="1" layer="-1.00" shape="274.050020,529.029803 279.120575,538.228954 264.434949,546.283494 259.973000,538.197150 264.321642,535.807362 263.706006,534.694692 274.050020,529.029803"/>
    <poly id="112607877" type="building" color="255,230,230" fill="1" layer="-1.00" shape="185.139316,455.015767 182.599728,450.177159 212.934458,433.794951 211.357039,431.030648 202.980272,416.083142 163.155982,437.670585 160.008795,439.383122 169.829091,457.052706 174.048443,454.887575 176.544993,459.671316 185.139316,455.015767"/>
    <poly id="11277226" type="landuse.commercial" color="209,209,204" fill="1" layer="-3.00" shape="325.505149,353.271499 320.605588,351.444031 314.890480,352.711983 296.776293,364.875279 266.209905,380.882839 213.293091,406.225212 156.706300,435.837076 155.141248,440.981218 183.547312,491.439007 257.983276,627.629693 317.296434,585.579855 353.682572,558.325244 361.519883,568.933219 404.835640,627.518313 474.161680,556.363676 408.006509,462.682941 325.505149,353.271499"/>
    <poly id="11277320" type="building" color="255,230,230" fill="1" layer="-1.00" shape="218.928375,308.319612 253.802929,356.473184 277.560710,339.361189 253.410285,306.013815 248.700342,309.411027 241.419273,299.360754 228.141196,308.925736 224.691227,304.169794 218.928375,308.319612"/>
    <poly id="11277320#1" type="shop.supermarket" color="237,199,255" fill="1" layer="-1.00" shape="218.928375,308.319612 253.802929,356.473184 277.560710,339.361189 253.410285,306.013815 248.700342,309.411027 241.419273,299.360754 228.141196,308.925736 224.691227,304.169794 218.928375,308.319612"/>
    <poly id="11277436" type="landuse.cemetery" color="194,194,130" fill="1" layer="-3.00" shape="568.382510,677.797248 564.641188,678.819144 559.438211,676.863277 554.567228,672.632477 550.945859,667.267543 548.267211,660.061942 550.440636,654.395638 474.161680,556.363676 404.835640,627.518313 343.611927,691.057345 336.124225,698.818915 335.607726,699.361869 340.513139,715.171183 340.969052,715.574767 347.999383,721.758656 353.516682,726.445135 367.705592,730.913194 370.065672,728.714000 372.827221,731.424268 441.664630,798.951341 477.742481,808.698912 492.043580,813.988464 505.620203,818.756792 564.894792,771.304550 565.159637,771.611378 576.314205,785.076056 582.170113,780.246483 618.367211,751.005965 613.567931,739.621613 609.640700,734.406578 568.382510,677.797248"/>
    <poly id="1175669486" type="building" color="255,230,230" fill="1" layer="-1.00" shape="541.042741,496.909876 556.337812,516.509017 560.806190,510.925021 546.468103,492.710691 541.042741,496.909876"/>
    <poly id="1175669892" type="building" color="255,230,230" fill="1" layer="-1.00" shape="194.761885,251.669540 189.847228,255.793404 198.062969,265.538026 202.977818,261.425290 194.761885,251.669540"/>
    <poly id="1178564353" type="amenity.parking" color="184,184,179" fill="1" layer="-1.00" shape="270.488354,251.088450 276.529837,246.822582 280.584941,252.491195 274.389007,256.748639 270.488354,251.088450"/>
    <poly id="1236900368" type="building" color="255,230,230" fill="1" layer="-1.00" shape="180.669794,238.401717 189.346023,248.405215 207.200549,233.020352 198.531148,223.005582 180.669794,238.401717"/>
    <poly id="1251088510" type="landuse.industrial" color="209,209,204" fill="0" layer="-3.00" shape="67.240292,878.288605 109.997222,858.984741 72.228131,777.668833 46.777193,726.536868 23.053865,684.751612 -40.660520,538.776362 37.657125,501.450513 63.892973,487.341770 92.871947,532.038295 134.352590,636.559170 123.156482,642.005705 147.448056,703.836703 154.130841,722.184169 198.417403,828.491655"/>
    <poly id="140044069" type="building" color="255,230,230" fill="1" layer="-1.00" shape="98.428802,563.742258 107.158434,581.208394 92.640850,588.426241 83.911179,570.960129 98.428802,563.742258"/>
    <poly id="140044088" type="building" color="255,230,230" fill="1" layer="-1.00" shape="92.640850,588.426241 99.669733,602.496234 118.123521,593.374026 112.720708,578.441242 107.158434,581.208394 92.640850,588.426241"/>
    <poly id="160965702" type="landuse.residential" color="235,235,227" fill="0" layer="-3.00" shape="-156.932842,32.719855 -160.542334,35.274960 -160.859492,37.182620 -174.738213,47.293118 -179.644242,51.105731 -185.154084,54.884480 -142.440424,128.892708 -109.155953,185.681335 -89.068461,219.954998 -54.527723,268.868833 -30.597119,302.752607 -10.293243,332.228619 16.543687,370.288402 41.271561,352.946921 107.454009,450.515846 203.467851,397.876933 206.006003,389.423272 195.986299,375.183081 205.268494,368.146261 225.701174,352.616167 233.474187,346.707040 222.758752,324.381247 212.305586,302.618167 198.833728,273.499903 242.781464,236.167889 263.502553,266.316148 272.621428,259.549276 304.097313,302.278915 333.718389,281.115823 351.108131,306.105893 385.351607,280.535301 392.579456,289.963798 461.768679,380.132039 451.345058,400.536237 467.706537,423.731553 422.832001,455.783196 493.700655,555.922258 541.826713,617.349857 549.475752,618.806956 558.446742,614.835094 566.656519,612.656253 576.636128,612.626697 584.835704,614.686021 593.872060,618.076670 602.562938,623.775874 612.022144,637.336949 614.422094,643.446240 616.168023,649.856145 616.332784,658.095597 615.785365,665.713446 613.296948,674.232767 610.102460,681.273891 605.457299,687.572820 598.665975,693.464267 661.671564,779.827493 674.981839,794.667444 710.317329,825.430252 715.974485,835.754154 724.051268,847.292830 846.678338,1012.707050 926.931470,1119.473572 1032.133400,1266.696950 1054.570337,1293.981959 1092.312919,1340.934242 1095.345748,1341.537880 1100.198739,1338.328035 1224.257635,1201.674736 1256.387002,1233.520018 1275.637255,1252.596608 1284.699745,1261.638565 1303.219295,1279.026055 1318.315180,1294.303845 1328.802386,1304.233317 1340.566425,1315.008322 1355.849061,1320.828254 1397.239871,1360.355989 1416.671971,1340.532069 1447.384636,1315.285313 1426.917827,1289.065794 1429.626955,1286.360508 1409.528345,1265.629553 1400.945086,1255.900579 1421.716769,1234.440661 1296.396026,1114.987795 1417.028936,981.969338 1482.272679,1044.644370 1563.210233,1058.218424 1655.309587,1070.455556 1660.297672,1033.562908 1668.528777,1035.078341 1674.545225,993.963418 1667.511480,994.785446 1660.319906,993.774879 1655.649774,987.292726 1661.934020,953.169657 1701.605220,957.190896 1706.197639,980.325837 1727.786140,976.016222 1710.846488,899.302309 1725.856282,898.198312 1810.759323,869.907063 1758.902659,708.512755 1786.810850,697.253834 1742.127789,558.316221 1719.007146,488.860969 1685.947316,433.225237 1658.629833,403.151872 1617.825228,360.096909 1579.479042,330.703591 1533.490330,301.075413 1464.824329,357.454547 1451.228488,338.190510 1426.880055,305.920243 1419.623409,295.523135 1407.500034,255.155308 1406.200049,237.569772 1396.331380,238.374410 1396.228012,237.263879 1395.796481,232.588476 1354.302587,209.902865 1324.589430,194.377273 1304.116214,236.554786 1294.363018,223.364640 1261.500239,243.065480 1302.837217,300.034762 1254.844056,335.814755 1244.062857,343.854452 1151.568808,219.453571"/>
    <poly id="172849553" type="building" color="255,230,230" fill="1" layer="-1.00" shape="307.488022,548.510828 303.894546,543.557131 331.765602,523.470196 335.351857,528.412915 307.488022,548.510828"/>
    <poly id="172849557" type="building" color="255,230,230" fill="1" layer="-1.00" shape="190.981558,583.476141 195.332951,590.852477 203.108102,586.289169 205.117463,589.691051 210.604990,587.058794 204.483805,575.942668 190.981558,583.476141"/>
    <poly id="172850820" type="building" color="255,230,230" fill="1" layer="-1.00" shape="217.562207,289.189283 215.901400,290.475307 202.399784,270.867946 211.267512,263.782789 223.624211,253.266183 233.092093,245.202828 236.213511,249.219272 238.148382,247.561388 241.572664,252.050831 230.394490,261.779246 229.478283,260.727460 223.079839,266.234320 227.402799,272.776939 213.288722,283.468928 217.562207,289.189283"/>
    <poly id="172850827" type="building" color="255,230,230" fill="1" layer="-1.00" shape="178.608816,229.261142 171.797508,220.815602 179.682658,214.492872 186.493960,222.938423 180.123555,228.044407 178.608816,229.261142"/>
    <poly id="172850828" type="building" color="255,230,230" fill="1" layer="-1.00" shape="173.678640,183.675418 178.599195,179.084261 174.146201,174.334804 172.483032,175.887840 168.158583,171.269615 164.901196,174.307744 173.678640,183.675418"/>
    <poly id="172850831" type="building" color="255,230,230" fill="1" layer="-1.00" shape="245.588591,277.908825 236.732554,266.039678 227.402799,272.776939 213.288722,283.468928 217.562207,289.189283 222.144591,295.326915 245.588591,277.908825"/>
    <poly id="172851079" type="building" color="255,230,230" fill="1" layer="-1.00" shape="323.164100,240.322407 314.626944,233.441893 323.023596,223.072694 331.560562,229.942101 323.164100,240.322407"/>
    <poly id="172851081" type="building" color="255,230,230" fill="1" layer="-1.00" shape="348.505146,208.222282 339.189870,200.565588 347.988842,189.933559 357.304123,197.590269 348.505146,208.222282"/>
    <poly id="172851083" type="building" color="255,230,230" fill="1" layer="-1.00" shape="301.103687,274.300695 299.268977,271.663224 304.937855,267.748732 306.772563,270.386205 301.103687,274.300695"/>
    <poly id="172851084" type="building" color="255,230,230" fill="1" layer="-1.00" shape="334.813388,224.234578 326.818081,217.455797 335.553494,207.203048 343.548804,213.981842 334.813388,224.234578"/>
    <poly id="218037751" type="building" color="255,230,230" fill="1" layer="-1.00" shape="125.075528,145.117728 120.113474,148.541721 137.577728,173.696653 142.532756,170.272799 125.075528,145.117728"/>
    <poly id="218037752" type="building" color="255,230,230" fill="1" layer="-1.00" shape="114.453362,152.556372 109.498335,155.980252 126.955606,181.135272 131.917632,177.711284 114.453362,152.556372"/>
    <poly id="221200054" type="landuse.retail" color="194,194,130" fill="1" layer="-3.00" shape="305.904215,328.175610 306.453578,333.916721 304.060769,339.064174 288.185410,352.111548 257.255919,369.015376 253.054575,371.413709 248.448897,373.952606 242.894920,364.394880 240.356709,359.634083 233.474187,346.707040 222.758752,324.381247 212.305586,302.618167 263.504503,266.026909 305.904215,328.175610"/>
    <poly id="228651382" type="building" color="255,230,230" fill="1" layer="-1.00" shape="166.382008,283.601253 165.935389,282.930562 160.934739,275.743599 150.465156,260.666007 140.383900,246.137790 134.656074,237.884643 125.937966,243.899475 157.663943,289.616033 166.382008,283.601253"/>
    <poly id="243071135" type="landuse.commercial" color="209,209,204" fill="1" layer="-3.00" shape="217.374111,372.939643 232.790163,364.115807 240.356709,359.634083 242.894920,364.394880 248.448897,373.952606 223.011303,386.845082 217.497830,385.606875 211.646793,377.511534 211.848940,372.636001 217.374111,372.939643"/>
    <poly id="243071135#1" type="shop.car" color="237,199,255" fill="1" layer="-1.00" shape="217.374111,372.939643 232.790163,364.115807 240.356709,359.634083 242.894920,364.394880 248.448897,373.952606 223.011303,386.845082 217.497830,385.606875 211.646793,377.511534 211.848940,372.636001 217.374111,372.939643"/>
    <poly id="243071136" type="building" color="255,230,230" fill="1" layer="-1.00" shape="194.296532,301.965979 199.404364,298.461635 206.010831,308.034247 200.895993,311.538707 194.296532,301.965979"/>
    <poly id="243071137" type="building" color="255,230,230" fill="1" layer="-1.00" shape="187.257250,291.711323 192.365087,288.206973 198.971579,297.779576 193.856736,301.284042 187.257250,291.711323"/>
    <poly id="24393004" type="building" color="255,230,230" fill="1" layer="-1.00" shape="477.017851,186.665938 487.601571,200.696588 488.765387,199.864265 498.132045,192.804271 487.548144,178.762480 477.017851,186.665938"/>
    <poly id="24393005" type="building" color="255,230,230" fill="1" layer="-1.00" shape="503.696732,171.261480 510.109810,179.825629 516.659771,174.939393 534.442134,161.781606 542.965501,155.426059 536.516421,146.806883 503.696732,171.261480"/>
    <poly id="24393007" type="building" color="255,230,230" fill="1" layer="-1.00" shape="468.327081,177.007046 459.537213,165.692536 470.194924,157.453119 478.991793,168.767526 468.327081,177.007046"/>
    <poly id="24393176" type="building" color="255,230,230" fill="1" layer="-1.00" shape="250.971096,189.551487 245.513544,181.504830 240.256758,184.121871 239.724246,183.352568 232.174573,188.812835 239.030615,198.214270 250.971096,189.551487"/>
    <poly id="24393177" type="building" color="255,230,230" fill="1" layer="-1.00" shape="249.803869,177.369709 244.774377,180.550051 240.846952,174.968214 244.808887,171.306017 249.803869,177.369709"/>
    <poly id="24393178" type="building" color="255,230,230" fill="1" layer="-1.00" shape="258.543761,185.403390 251.406488,175.161487 265.009847,165.724362 272.147104,175.966283 258.543761,185.403390"/>
    <poly id="24393179" type="building" color="255,230,230" fill="1" layer="-1.00" shape="242.135422,165.235042 231.876977,173.023016 223.133125,161.563484 233.391581,153.775493 242.135422,165.235042"/>
    <poly id="24393536" type="amenity.fuel" color="237,199,199" fill="1" layer="-1.00" shape="321.475786,319.004504 339.903607,305.512147 340.909760,306.896076 348.147532,301.652763 336.117302,285.133842 328.879323,290.366051 310.436276,304.192411 321.475786,319.004504"/>
    <poly id="24393536#1" type="building" color="255,230,230" fill="1" layer="-1.00" shape="321.475786,319.004504 339.903607,305.512147 340.909760,306.896076 348.147532,301.652763 336.117302,285.133842 328.879323,290.366051 310.436276,304.192411 321.475786,319.004504"/>
    <poly id="24393536#2" type="man_made.storage_tank" color="255,230,230" fill="1" layer="-1.00" shape="321.475786,319.004504 339.903607,305.512147 340.909760,306.896076 348.147532,301.652763 336.117302,285.133842 328.879323,290.366051 310.436276,304.192411 321.475786,319.004504"/>
    <poly id="24393537" type="building" color="255,230,230" fill="1" layer="-1.00" shape="361.590818,291.896111 351.087253,299.298825 345.966903,292.069292 343.651347,288.806192 353.555987,282.047964 354.263017,281.568421 361.590818,291.896111"/>
    <poly id="24393538" type="building" color="255,230,230" fill="1" layer="-1.00" shape="371.659722,268.861724 378.922271,278.667787 374.649685,281.812521 374.929950,282.196933 369.189159,286.412934 361.286606,275.705972 367.269704,271.307753 367.781747,271.710358 371.659722,268.861724"/>
    <poly id="24393539" type="building" color="255,230,230" fill="1" layer="-1.00" shape="357.576321,279.319185 354.263017,281.568421 353.555987,282.047964 350.093856,276.991827 354.121204,274.262922 357.576321,279.319185"/>
    <poly id="24393540" type="building" color="255,230,230" fill="1" layer="-1.00" shape="390.965797,270.682043 399.974177,264.406755 392.982194,254.429085 383.973804,260.704385 390.965797,270.682043"/>
    <poly id="24393541" type="building" color="255,230,230" fill="1" layer="-1.00" shape="422.668396,248.192786 415.256520,237.866482 411.072311,240.853913 408.225460,236.888184 402.683462,240.844835 405.465654,244.722706 401.641598,247.448014 409.118344,257.873276 422.668396,248.192786"/>
    <poly id="24393542" type="building" color="255,230,230" fill="1" layer="-1.00" shape="429.386503,242.502622 420.512346,230.377653 423.218598,228.305921 419.898863,223.770041 426.575286,218.903723 429.852170,223.395863 433.186580,221.146309 442.060915,233.282419 429.386503,242.502622"/>
    <poly id="24393543" type="building" color="255,230,230" fill="1" layer="-1.00" shape="456.241822,222.367441 458.180268,220.909798 468.128849,213.439144 458.550656,200.759125 446.663809,209.698564 456.241822,222.367441"/>
    <poly id="24393544" type="building" color="255,230,230" fill="1" layer="-1.00" shape="444.992202,229.638388 450.451461,225.761093 442.204281,214.192418 446.111747,211.421190 442.444961,206.290706 433.085040,212.928002 444.992202,229.638388"/>
    <poly id="24393545" type="building" color="255,230,230" fill="1" layer="-1.00" shape="446.087012,183.913829 438.978714,174.505415 437.937504,173.122080 433.658948,176.333605 432.079407,174.247792 426.852469,178.176661 428.432011,180.262473 426.715022,181.549408 431.504278,187.894946 428.181134,190.389015 431.541593,194.846325 433.722350,193.206466 438.817801,189.380010 446.087012,183.913829"/>
    <poly id="24393549" type="building" color="255,230,230" fill="1" layer="-1.00" shape="333.686349,153.399158 339.776028,161.501585 334.288528,165.768806 316.655476,179.013670 299.017648,191.980600 285.141997,202.290017 281.640321,204.998649 275.550596,196.896289 333.686349,153.399158"/>
    <poly id="24393550" type="building" color="255,230,230" fill="1" layer="-1.00" shape="271.927216,218.694572 262.552140,225.655024 253.545110,213.577149 262.913186,206.616804 271.927216,218.694572"/>
    <poly id="24393552" type="building" color="255,230,230" fill="1" layer="-1.00" shape="282.139449,212.275646 277.993271,215.429370 291.172021,232.628826 295.317997,229.463993 282.139449,212.275646"/>
    <poly id="24393554" type="building" color="255,230,230" fill="1" layer="-1.00" shape="329.291335,246.166142 336.472970,237.308739 344.291587,243.612325 341.751102,246.737909 351.077985,254.260924 346.436828,259.992723 329.291335,246.166142"/>
    <poly id="24393555" type="building" color="255,230,230" fill="1" layer="-1.00" shape="325.300395,280.640205 316.104176,286.996776 310.220863,278.657179 307.316991,280.654568 304.805860,277.038963 307.772061,274.995988 307.088429,274.006859 316.284856,267.661392 325.300395,280.640205"/>
    <poly id="24393556" type="building" color="255,230,230" fill="1" layer="-1.00" shape="371.403414,226.130664 378.255468,234.920566 369.328457,241.839616 362.476396,233.049726 371.403414,226.130664"/>
    <poly id="24393557" type="building" color="255,230,230" fill="1" layer="-1.00" shape="361.498189,190.353539 352.182707,182.685701 360.981737,172.053696 370.297224,179.721549 361.498189,190.353539"/>
    <poly id="24393558" type="building" color="255,230,230" fill="1" layer="-1.00" shape="367.852381,152.623568 371.030812,156.694711 354.297895,169.678990 351.126470,165.607735 367.852381,152.623568"/>
    <poly id="24393560" type="building" color="255,230,230" fill="1" layer="-1.00" shape="395.529547,161.027094 380.313262,181.726557 391.817696,197.854336 394.523760,195.771469 398.184440,192.926657 389.072346,179.637957 400.495004,165.411832 395.529547,161.027094"/>
    <poly id="24393561" type="building" color="255,230,230" fill="1" layer="-1.00" shape="394.523760,195.771469 400.235848,203.146431 412.679904,193.585365 407.268738,186.572197 398.184440,192.926657 394.523760,195.771469"/>
    <poly id="24393562" type="building" color="255,230,230" fill="1" layer="-1.00" shape="398.875036,224.404509 403.536265,221.019415 398.678064,214.341410 394.009820,217.726631 398.875036,224.404509"/>
    <poly id="24393563" type="building" color="255,230,230" fill="1" layer="-1.00" shape="307.021829,260.181814 315.037173,254.479918 306.301442,242.263729 298.286282,247.976759 307.021829,260.181814"/>
    <poly id="24394875" type="building" color="255,230,230" fill="1" layer="-1.00" shape="473.509328,236.770713 481.369072,230.982813 509.290422,268.670173 501.437719,274.457908 496.833457,268.253681 487.437738,255.570425 478.149870,243.041027 473.509328,236.770713"/>
    <poly id="24394876" type="building" color="255,230,230" fill="1" layer="-1.00" shape="506.411634,288.175000 517.365009,280.008374 522.456713,286.815887 527.419087,293.447691 516.465532,301.603176 506.411634,288.175000"/>
    <poly id="24394880" type="building" color="255,230,230" fill="1" layer="-1.00" shape="520.877313,311.247864 534.084210,301.996342 538.385148,308.105787 543.153677,314.885591 529.946798,324.137090 520.877313,311.247864"/>
    <poly id="24394883" type="building" color="255,230,230" fill="1" layer="-1.00" shape="539.127157,332.130167 549.168139,324.735914 552.395964,329.240107 556.666314,334.805061 549.374428,340.171378 550.279248,341.379142 547.523151,343.407185 539.127157,332.130167"/>
    <poly id="24394885" type="building" color="255,230,230" fill="1" layer="-1.00" shape="552.305999,351.009867 562.333132,343.627004 570.500221,354.652217 560.473099,362.035065 552.305999,351.009867"/>
    <poly id="24394889" type="building" color="255,230,230" fill="1" layer="-1.00" shape="515.190006,415.738841 579.359882,368.390553 585.156216,376.198045 578.737154,380.937315 566.099881,390.267772 553.047197,399.905840 540.423651,409.213877 527.447220,418.795065 520.986583,423.557382 515.190006,415.738841"/>
    <poly id="24394899" type="building" color="255,230,230" fill="1" layer="-1.00" shape="494.360454,364.001294 505.674151,355.995193 513.705578,367.278524 509.236858,370.437695 502.384883,375.284730 501.708895,374.328812 494.360454,364.001294"/>
    <poly id="24394910" type="building" color="255,230,230" fill="1" layer="-1.00" shape="452.988992,347.305000 446.313294,338.155980 455.102312,331.773386 461.777808,340.911298 457.684616,343.885981 452.988992,347.305000"/>
    <poly id="24394918" type="building" color="255,230,230" fill="1" layer="-1.00" shape="405.987758,287.026430 409.017668,291.033451 406.767621,292.719026 410.716605,297.944661 411.844939,297.090693 415.025584,301.295301 425.645337,293.312279 416.469553,281.181467 412.793544,283.948673 411.809803,282.642203 405.987758,287.026430"/>
    <poly id="24394920" type="building" color="255,230,230" fill="1" layer="-1.00" shape="434.616826,284.123404 429.314065,277.286293 425.819459,272.775713 434.885557,265.787591 443.682914,277.135297 434.616826,284.123404"/>
    <poly id="24394924" type="building" color="255,230,230" fill="1" layer="-1.00" shape="453.230581,272.819495 442.762218,258.564434 454.722557,249.823917 465.190903,264.079001 453.230581,272.819495"/>
    <poly id="24394939" type="building" color="255,230,230" fill="1" layer="-1.00" shape="450.122163,306.466023 447.067179,302.225829 442.588890,296.008324 453.187449,288.415045 460.720710,298.872759 450.122163,306.466023"/>
    <poly id="24395015" type="building" color="255,230,230" fill="1" layer="-1.00" shape="538.514726,449.724696 544.684759,458.048412 538.251816,462.787979 525.393170,472.278135 512.534376,481.757203 499.668618,491.236427 486.810113,500.726681 480.377276,505.466322 474.207190,497.142682 538.514726,449.724696"/>
    <poly id="24395028" type="building" color="255,230,230" fill="1" layer="-1.00" shape="546.961861,439.833278 556.791976,453.321047 570.041432,443.712920 560.204323,430.225249 546.961861,439.833278"/>
    <poly id="24395052" type="building" color="255,230,230" fill="1" layer="-1.00" shape="507.316270,565.294953 521.626044,554.978531 511.104669,540.457315 496.794873,550.773766 507.316270,565.294953"/>
    <poly id="24395058" type="building" color="255,230,230" fill="1" layer="-1.00" shape="494.483253,538.890014 497.370498,536.748415 498.756521,538.604037 505.008977,533.978801 503.622955,532.123177 506.890980,529.696852 495.715722,514.686539 483.307783,523.868606 494.483253,538.890014"/>
    <poly id="24397201" type="building" color="255,230,230" fill="1" layer="-1.00" shape="528.061810,588.569610 541.520832,578.535054 531.058539,564.580054 517.606316,574.603395 523.365530,582.300232 528.061810,588.569610"/>
    <poly id="24405439" type="building" color="255,230,230" fill="1" layer="-1.00" shape="575.726982,316.953327 586.173006,309.051535 577.946465,298.238676 567.500431,306.140484 575.726982,316.953327"/>
    <poly id="24405440" type="building" color="255,230,230" fill="1" layer="-1.00" shape="559.844570,300.701343 572.502900,291.359387 570.721494,288.954482 573.602096,286.824170 575.469776,289.349927 584.998038,282.309515 574.181054,267.748831 564.811915,274.664130 566.895002,277.475329 563.183272,280.209680 561.272735,277.640182 549.293001,286.480898 559.844570,300.701343"/>
    <poly id="24405441" type="building" color="255,230,230" fill="1" layer="-1.00" shape="544.254103,279.883779 556.760360,270.266359 551.844732,263.900670 546.527699,257.041445 534.021427,266.658890 544.254103,279.883779"/>
    <poly id="24405442" type="building" color="255,230,230" fill="1" layer="-1.00" shape="562.348519,264.529352 569.823831,258.815036 560.759722,247.037971 553.291414,252.752178 554.748383,254.651070 561.403753,263.444638 562.348519,264.529352"/>
    <poly id="24405443" type="building" color="255,230,230" fill="1" layer="-1.00" shape="537.193038,251.064353 528.311680,256.992358 520.404420,245.195165 529.278778,239.267269 537.193038,251.064353"/>
    <poly id="24405444" type="building" color="255,230,230" fill="1" layer="-1.00" shape="507.823218,228.830080 504.876718,224.777054 498.501677,215.978660 504.216156,211.852254 505.114579,213.093493 511.293230,208.636416 518.451575,218.511227 512.245077,222.979905 513.510031,224.726414 507.823218,228.830080"/>
    <poly id="24405445" type="building" color="255,230,230" fill="1" layer="-1.00" shape="535.075723,214.149897 547.530666,205.200750 542.494433,198.358874 537.618684,191.469707 525.156711,200.419000 535.075723,214.149897"/>
    <poly id="24405446" type="building" color="255,230,230" fill="1" layer="-1.00" shape="547.922791,179.443600 560.032019,196.095099 579.558293,181.983805 575.835721,176.865326 572.451238,172.230373 567.435074,165.332506 547.922791,179.443600"/>
    <poly id="24405454" type="building" color="255,230,230" fill="1" layer="-1.00" shape="554.621796,238.958384 545.108680,246.065325 540.829101,240.378185 543.245556,238.578533 539.446413,233.895223 534.648368,237.482799 530.777957,232.333563 542.859669,223.301932 554.621796,238.958384"/>
    <poly id="24405659" type="building" color="255,230,230" fill="1" layer="-1.00" shape="433.746149,441.788477 458.548464,423.835941 449.292563,411.116944 442.119727,401.209113 429.866644,410.032652 417.274313,419.106863 424.439968,429.003663 433.746149,441.788477"/>