<?xml version="1.0" encoding="UTF-8"?>

<!-- generated on 2024-11-03 18:16:36 by Eclipse SUMO polyconvert Version 1.11.0
<configuration xmlns:xsi="http://www.w3.org/2001/XMLSchema-instance" xsi:noNamespaceSchemaLocation="http://sumo.dlr.de/xsd/polyconvertConfiguration.xsd">

    <input>
        <net-file value="osm.net.xml"/>
        <osm-files value="osm_bbox.osm.xml"/>
        <osm.keep-full-type value="true"/>
        <type-file value="/home/veins/src/sumo-1.11.0/data/typemap/osmPolyconvert.typ.xml"/>
    </input>

    <output>
        <output-file value="osm.poly.xml"/>
    </output>

    <processing>
        <poi-layer-offset value="5"/>
    </processing>

    <report>
        <verbose value="true"/>
    </report>

</configuration>
-->

<additional xmlns:xsi="http://www.w3.org/2001/XMLSchema-instance" xsi:noNamespaceSchemaLocation="http://sumo.dlr.de/xsd/additional_file.xsd">
    <location netOffset="-409276.15,-5653896.18" convBoundary="-1442.79,-848.13,2060.65,1926.68" origBoundary="13.685882,51.021595,13.735142,51.047092" projParameter="+proj=utm +zone=33 +ellps=WGS84 +datum=WGS84 +units=m +no_defs"/>

    <poly id="24394889" type="building" color="255,230,230" fill="1" layer="-1.00" shape="515.190006,415.738841 579.359882,368.390553 585.156216,376.198045 578.737154,380.937315 566.099881,390.267772 553.047197,399.905840 540.423651,409.213877 527.447220,418.795065 520.986583,423.557382 515.190006,415.738841"/>
    <poly id="317693369" type="building" color="255,230,230" fill="1" layer="-1.00" shape= "447.1,489.5 503.1,447.1 483.3,422.5 428.8,464.5"/>
</additional>
