<?xml version="1.0" encoding="UTF-8"?>

<!-- generated on 2024-12-11 18:46:58 by Eclipse SUMO netedit Version 1.11.0
<configuration xmlns:xsi="http://www.w3.org/2001/XMLSchema-instance" xsi:noNamespaceSchemaLocation="http://sumo.dlr.de/xsd/netconvertConfiguration.xsd">

    <input>
        <sumo-net-file value="/home/veins/ble_simulation/ble_simulation/examples/ble_simulation/osm.net.xml"/>
    </input>

    <output>
        <output-file value="/home/veins/ble_simulation/ble_simulation/examples/ble_simulation/osm.net.xml"/>
        <output.street-names value="true"/>
    </output>

    <processing>
        <geometry.min-radius.fix.railways value="false"/>
        <geometry.max-grade.fix value="false"/>
        <offset.disable-normalization value="true"/>
        <lefthand value="false"/>
    </processing>

    <junctions>
        <no-internal-links value="false"/>
        <no-turnarounds value="true"/>
        <junctions.corner-detail value="5"/>
        <junctions.limit-turn-speed value="5.5"/>
        <rectangular-lane-cut value="false"/>
    </junctions>

    <pedestrian>
        <walkingareas value="true"/>
    </pedestrian>

    <report>
        <aggregate-warnings value="5"/>
    </report>

</configuration>
-->

<net version="1.9" junctionCornerDetail="5" walkingareas="true" limitTurnSpeed="5.50" xmlns:xsi="http://www.w3.org/2001/XMLSchema-instance" xsi:noNamespaceSchemaLocation="http://sumo.dlr.de/xsd/net_file.xsd">

    <location netOffset="-409276.15,-5653896.18" convBoundary="-0.00,0.00,1016.68,742.69" origBoundary="13.685882,51.021595,13.735142,51.047092" projParameter="+proj=utm +zone=33 +ellps=WGS84 +datum=WGS84 +units=m +no_defs"/>

    <type id="cycleway.lane" allow="bicycle" bikeLaneWidth="1.00"/>
    <type id="cycleway.lane|highway.tertiary" priority="10" numLanes="1" speed="13.89" disallow="pedestrian tram rail_urban rail rail_electric rail_fast ship" oneway="0" sidewalkWidth="3.00" bikeLaneWidth="1.00"/>
    <type id="cycleway.opposite_lane" allow="bicycle" bikeLaneWidth="1.00"/>
    <type id="cycleway.opposite_track" allow="bicycle" bikeLaneWidth="1.50"/>
    <type id="cycleway.track" allow="bicycle" bikeLaneWidth="1.50"/>
    <type id="highway.bridleway" priority="1" numLanes="1" speed="2.78" allow="pedestrian" oneway="1" width="2.00"/>
    <type id="highway.bus_guideway" priority="1" numLanes="1" speed="13.89" allow="bus" oneway="1"/>
    <type id="highway.cycleway" priority="1" numLanes="1" speed="8.33" allow="bicycle" oneway="0" width="1.00"/>
    <type id="highway.footway" priority="1" numLanes="1" speed="2.78" allow="pedestrian" oneway="1" width="2.00"/>
    <type id="highway.ford" priority="1" numLanes="1" speed="2.78" allow="army" oneway="0"/>
    <type id="highway.living_street" priority="2" numLanes="1" speed="2.78" disallow="tram rail_urban rail rail_electric rail_fast ship" oneway="0"/>
    <type id="highway.motorway" priority="14" numLanes="2" speed="27.78" allow="private emergency authority army vip passenger hov taxi bus coach delivery truck trailer motorcycle evehicle custom1 custom2" oneway="1"/>
    <type id="highway.motorway_link" priority="9" numLanes="1" speed="16.67" allow="private emergency authority army vip passenger hov taxi bus coach delivery truck trailer motorcycle evehicle custom1 custom2" oneway="1"/>
    <type id="highway.path" priority="1" numLanes="1" speed="2.78" allow="pedestrian bicycle" oneway="0" width="2.00"/>
    <type id="highway.pedestrian" priority="1" numLanes="1" speed="2.78" allow="pedestrian" oneway="1" width="2.00"/>
    <type id="highway.primary" priority="12" numLanes="2" speed="13.89" disallow="pedestrian tram rail_urban rail rail_electric rail_fast ship" oneway="0" sidewalkWidth="3.00"/>
    <type id="highway.primary_link" priority="7" numLanes="1" speed="13.89" disallow="pedestrian tram rail_urban rail rail_electric rail_fast ship" oneway="0" sidewalkWidth="3.00"/>
    <type id="highway.raceway" priority="15" numLanes="2" speed="83.33" allow="vip" oneway="0"/>
    <type id="highway.residential" priority="3" numLanes="1" speed="13.89" disallow="pedestrian tram rail_urban rail rail_electric rail_fast ship" oneway="0" sidewalkWidth="2.00"/>
    <type id="highway.secondary" priority="11" numLanes="1" speed="13.89" disallow="pedestrian tram rail_urban rail rail_electric rail_fast ship" oneway="0" sidewalkWidth="3.00"/>
    <type id="highway.secondary_link" priority="6" numLanes="1" speed="13.89" disallow="pedestrian tram rail_urban rail rail_electric rail_fast ship" oneway="0" sidewalkWidth="3.00"/>
    <type id="highway.service" priority="1" numLanes="1" speed="5.56" allow="pedestrian delivery bicycle" oneway="0"/>
    <type id="highway.stairs" priority="1" numLanes="1" speed="1.39" allow="pedestrian" oneway="1" width="2.00"/>
    <type id="highway.step" priority="1" numLanes="1" speed="1.39" allow="pedestrian" oneway="1" width="2.00"/>
    <type id="highway.steps" priority="1" numLanes="1" speed="1.39" allow="pedestrian" oneway="1" width="2.00"/>
    <type id="highway.tertiary" priority="10" numLanes="1" speed="13.89" disallow="pedestrian tram rail_urban rail rail_electric rail_fast ship" oneway="0" sidewalkWidth="3.00"/>
    <type id="highway.tertiary_link" priority="5" numLanes="1" speed="13.89" disallow="pedestrian tram rail_urban rail rail_electric rail_fast ship" oneway="0" sidewalkWidth="2.00"/>
    <type id="highway.track" priority="1" numLanes="1" speed="5.56" allow="pedestrian motorcycle moped bicycle" oneway="0"/>
    <type id="highway.trunk" priority="13" numLanes="2" speed="13.89" disallow="pedestrian bicycle tram rail_urban rail rail_electric rail_fast ship" oneway="0"/>
    <type id="highway.trunk_link" priority="8" numLanes="1" speed="13.89" disallow="pedestrian bicycle tram rail_urban rail rail_electric rail_fast ship" oneway="0"/>
    <type id="highway.unclassified" priority="4" numLanes="1" speed="13.89" disallow="pedestrian tram rail_urban rail rail_electric rail_fast ship" oneway="0" sidewalkWidth="2.00"/>
    <type id="highway.unsurfaced" priority="1" numLanes="1" speed="8.33" disallow="tram rail_urban rail rail_electric rail_fast ship" oneway="0"/>
    <type id="railway.highspeed" priority="21" numLanes="1" speed="69.44" allow="rail_fast" oneway="1"/>
    <type id="railway.light_rail" priority="19" numLanes="1" speed="27.78" allow="rail_urban" oneway="1"/>
    <type id="railway.preserved" priority="16" numLanes="1" speed="27.78" allow="rail" oneway="1"/>
    <type id="railway.rail" priority="20" numLanes="1" speed="44.44" allow="rail" oneway="1"/>
    <type id="railway.subway" priority="18" numLanes="1" speed="27.78" allow="rail_urban" oneway="1"/>
    <type id="railway.tram" priority="17" numLanes="1" speed="13.89" allow="tram" oneway="1"/>

    <edge id=":10161200456_0" function="internal">
        <lane id=":10161200456_0_0" index="0" disallow="pedestrian tram rail_urban rail rail_electric rail_fast ship" speed="3.65" length="4.67" shape="283.36,620.83 281.92,620.90 281.12,620.49 280.97,619.61 281.46,618.25"/>
    </edge>
    <edge id=":10161200456_w0" function="walkingarea">
        <lane id=":10161200456_w0_0" index="0" allow="pedestrian" speed="1.00" length="8.40" width="2.00" shape="280.51,616.97 279.32,615.36 285.50,623.72 284.31,622.11"/>
    </edge>
    <edge id=":1159808977_0" function="internal">
        <lane id=":1159808977_0_0" index="0" disallow="pedestrian tram rail_urban rail rail_electric rail_fast ship" speed="13.89" length="7.88" shape="247.48,383.16 240.43,386.68"/>
    </edge>
    <edge id=":1159808977_1" function="internal">
        <lane id=":1159808977_1_0" index="0" disallow="pedestrian tram rail_urban rail rail_electric rail_fast ship" speed="13.89" length="8.40" shape="238.95,383.84 240.92,382.26 241.81,380.57 242.70,378.91 244.70,377.39"/>
        <lane id=":1159808977_1_1" index="1" disallow="pedestrian tram rail_urban rail rail_electric rail_fast ship" speed="13.89" length="8.40" shape="238.95,383.84 246.09,380.27"/>
    </edge>
    <edge id=":1159808977_c0" function="crossing" crossingEdges="73520768#0 -1221815305">
        <lane id=":1159808977_c0_0" index="0" allow="pedestrian" speed="1.00" length="9.60" width="4.00" shape="242.20,376.82 246.37,385.46"/>
    </edge>
    <edge id=":1159808977_w0" function="walkingarea">
        <lane id=":1159808977_w0_0" index="0" allow="pedestrian" speed="1.00" length="5.43" width="4.00" shape="241.17,388.10 242.55,390.76 249.47,387.30 248.17,384.60 244.57,386.33"/>
    </edge>
    <edge id=":1159808977_w1" function="walkingarea">
        <lane id=":1159808977_w1_0" index="0" allow="pedestrian" speed="1.00" length="5.85" width="4.00" shape="244.01,375.95 242.70,373.25 236.83,379.76 238.22,382.42 239.71,381.38 240.56,380.27 241.09,379.14 241.62,378.02 242.49,376.94"/>
    </edge>
    <edge id=":11767978_0" function="internal">
        <lane id=":11767978_0_0" index="0" disallow="pedestrian tram rail_urban rail rail_electric rail_fast ship" speed="3.65" length="4.67" shape="583.99,138.61 585.43,138.54 586.23,138.95 586.38,139.83 585.89,141.19"/>
    </edge>
    <edge id=":11767978_w0" function="walkingarea">
        <lane id=":11767978_w0_0" index="0" allow="pedestrian" speed="1.00" length="9.40" width="3.00" shape="586.84,142.47 588.63,144.88 581.25,134.92 583.04,137.33"/>
    </edge>
    <edge id=":12230390550_0" function="internal">
        <lane id=":12230390550_0_0" index="0" disallow="pedestrian tram rail_urban rail rail_electric rail_fast ship" speed="11.11" length="4.00" shape="127.73,447.18 124.22,449.09"/>
    </edge>
    <edge id=":12230390550_1" function="internal">
        <lane id=":12230390550_1_0" index="0" disallow="pedestrian tram rail_urban rail rail_electric rail_fast ship" speed="8.33" length="4.00" shape="122.69,446.28 126.20,444.37"/>
    </edge>
    <edge id=":12230390550_c0" function="crossing" crossingEdges="-1321690631 1321690631">
        <lane id=":12230390550_c0_0" index="0" allow="pedestrian" speed="1.00" length="6.40" width="4.00" shape="123.68,443.92 126.74,449.54"/>
    </edge>
    <edge id=":12230390550_w0" function="walkingarea">
        <lane id=":12230390550_w0_0" index="0" allow="pedestrian" speed="1.00" length="3.00" width="4.00" shape="124.98,450.50 126.41,453.13 129.93,451.22 128.50,448.59 124.98,450.50"/>
    </edge>
    <edge id=":12230390550_w1" function="walkingarea">
        <lane id=":12230390550_w1_0" index="0" allow="pedestrian" speed="1.00" length="3.00" width="4.00" shape="121.92,444.87 125.44,442.96 124.01,440.33 120.49,442.24 121.92,444.87"/>
    </edge>
    <edge id=":16075660_0" function="internal">
        <lane id=":16075660_0_0" index="0" disallow="pedestrian tram rail_urban rail rail_electric rail_fast ship" speed="6.48" length="9.12" shape="399.42,102.72 397.71,100.89 395.83,100.07 393.78,100.26 391.58,101.45"/>
    </edge>
    <edge id=":16075660_1" function="internal">
        <lane id=":16075660_1_0" index="0" disallow="pedestrian tram rail_urban rail rail_electric rail_fast ship" speed="8.33" length="14.49" shape="399.42,102.72 390.95,90.97"/>
    </edge>
    <edge id=":16075660_2" function="internal">
        <lane id=":16075660_2_0" index="0" disallow="pedestrian tram rail_urban rail rail_electric rail_fast ship" speed="3.65" length="4.67" shape="399.42,102.72 399.39,101.28 399.81,100.49 400.70,100.36 402.04,100.88"/>
    </edge>
    <edge id=":16075660_3" function="internal">
        <lane id=":16075660_3_0" index="0" disallow="pedestrian tram rail_urban rail rail_electric rail_fast ship" speed="8.33" length="14.57" shape="393.52,89.06 402.04,100.88"/>
    </edge>
    <edge id=":16075660_4" function="internal">
        <lane id=":16075660_4_0" index="0" disallow="pedestrian tram rail_urban rail rail_electric rail_fast ship" speed="8.03" length="14.30" shape="393.52,89.06 395.36,92.49 395.65,95.69 394.39,98.68 391.58,101.45"/>
    </edge>
    <edge id=":16075660_5" function="internal">
        <lane id=":16075660_5_0" index="0" disallow="pedestrian tram rail_urban rail rail_electric rail_fast ship" speed="3.65" length="4.67" shape="393.52,89.06 393.59,90.50 393.19,91.30 392.30,91.45 390.95,90.97"/>
    </edge>
    <edge id=":16075660_6" function="internal">
        <lane id=":16075660_6_0" index="0" disallow="pedestrian tram rail_urban rail rail_electric rail_fast ship" speed="6.54" length="9.14" shape="389.67,98.88 391.48,97.10 392.30,95.19 392.12,93.15 390.95,90.97"/>
    </edge>
    <edge id=":16075660_7" function="internal">
        <lane id=":16075660_7_0" index="0" disallow="pedestrian tram rail_urban rail rail_electric rail_fast ship" speed="7.98" length="14.37" shape="389.67,98.88 393.15,97.00 396.37,96.71 399.34,98.00 402.04,100.88"/>
    </edge>
    <edge id=":16075660_8" function="internal">
        <lane id=":16075660_8_0" index="0" disallow="pedestrian tram rail_urban rail rail_electric rail_fast ship" speed="3.65" length="4.67" shape="389.67,98.88 391.11,98.81 391.91,99.21 392.07,100.09 391.58,101.45"/>
    </edge>
    <edge id=":16075660_c0" function="crossing" crossingEdges="1086217493#1 -1086217493#4">
        <lane id=":16075660_c0_0" index="0" allow="pedestrian" speed="1.00" length="6.40" width="4.00" shape="402.20,98.33 396.96,102.00"/>
    </edge>
    <edge id=":16075660_c1" function="crossing" crossingEdges="-1086217493#0 1086217493#0">
        <lane id=":16075660_c1_0" index="0" allow="pedestrian" speed="1.00" length="6.40" width="4.00" shape="390.85,93.53 396.00,89.72"/>
    </edge>
    <edge id=":16075660_c2" function="crossing" crossingEdges="-3269845#3 3269845#0">
        <lane id=":16075660_c2_0" index="0" allow="pedestrian" speed="1.00" length="6.40" width="4.00" shape="394.14,101.55 390.33,96.40"/>
    </edge>
    <edge id=":16075660_w0" function="walkingarea">
        <lane id=":16075660_w0_0" index="0" allow="pedestrian" speed="1.00" length="3.30" width="4.00" shape="392.53,102.74 393.72,104.34 396.48,104.79 398.11,103.64 397.31,102.69 396.46,102.07 395.55,101.76 394.60,101.76 393.59,102.09"/>
    </edge>
    <edge id=":16075660_w1" function="walkingarea">
        <lane id=":16075660_w1_0" index="0" allow="pedestrian" speed="1.00" length="9.18" width="4.00" shape="401.05,96.69 403.35,99.96 404.99,98.81 396.41,86.92 394.80,88.11 397.19,91.32"/>
    </edge>
    <edge id=":16075660_w2" function="walkingarea">
        <lane id=":16075660_w2_0" index="0" allow="pedestrian" speed="1.00" length="3.36" width="4.00" shape="389.66,91.92 388.05,93.11 387.53,95.98 388.72,97.59 389.67,96.75 390.30,95.87 390.62,94.94 390.62,93.98 390.30,92.97"/>
    </edge>
    <edge id=":16075689_0" function="internal">
        <lane id=":16075689_0_0" index="0" disallow="pedestrian tram rail_urban rail rail_electric rail_fast ship" speed="13.89" length="13.34" shape="237.40,221.74 229.42,211.05"/>
    </edge>
    <edge id=":16075689_1" function="internal">
        <lane id=":16075689_1_0" index="0" disallow="pedestrian tram rail_urban rail rail_electric rail_fast ship" speed="8.01" length="5.46" shape="237.40,221.74 235.71,218.48 235.63,216.69"/>
    </edge>
    <edge id=":16075689_2" function="internal">
        <lane id=":16075689_2_0" index="0" disallow="pedestrian tram rail_urban rail rail_electric rail_fast ship" speed="3.65" length="2.34" shape="237.40,221.74 237.33,220.30 237.74,219.50"/>
    </edge>
    <edge id=":16075689_9" function="internal">
        <lane id=":16075689_9_0" index="0" disallow="pedestrian tram rail_urban rail rail_electric rail_fast ship" speed="8.01" length="8.71" shape="235.63,216.69 235.56,215.37 236.96,212.38 239.91,209.54"/>
    </edge>
    <edge id=":16075689_10" function="internal">
        <lane id=":16075689_10_0" index="0" disallow="pedestrian tram rail_urban rail rail_electric rail_fast ship" speed="3.65" length="2.34" shape="237.74,219.50 238.62,219.34 239.97,219.83"/>
    </edge>
    <edge id=":16075689_3" function="internal">
        <lane id=":16075689_3_0" index="0" disallow="pedestrian tram rail_urban rail rail_electric rail_fast ship" speed="6.52" length="9.03" shape="241.82,212.10 239.88,213.95 238.92,215.86 238.95,217.82 239.97,219.83"/>
    </edge>
    <edge id=":16075689_4" function="internal">
        <lane id=":16075689_4_0" index="0" disallow="pedestrian tram rail_urban rail rail_electric rail_fast ship" speed="8.01" length="14.17" shape="241.82,212.10 238.26,214.12 235.00,214.62 232.06,213.59 229.42,211.05"/>
    </edge>
    <edge id=":16075689_5" function="internal">
        <lane id=":16075689_5_0" index="0" disallow="pedestrian tram rail_urban rail rail_electric rail_fast ship" speed="3.65" length="4.67" shape="241.82,212.10 240.38,212.18 239.58,211.78 239.42,210.90 239.91,209.54"/>
    </edge>
    <edge id=":16075689_6" function="internal">
        <lane id=":16075689_6_0" index="0" disallow="pedestrian tram rail_urban rail rail_electric rail_fast ship" speed="6.52" length="4.85" shape="231.97,209.13 233.61,210.67 235.48,211.26 236.11,211.15"/>
    </edge>
    <edge id=":16075689_7" function="internal">
        <lane id=":16075689_7_0" index="0" disallow="pedestrian tram rail_urban rail rail_electric rail_fast ship" speed="13.89" length="13.37" shape="231.97,209.13 239.97,219.83"/>
    </edge>
    <edge id=":16075689_8" function="internal">
        <lane id=":16075689_8_0" index="0" disallow="pedestrian tram rail_urban rail rail_electric rail_fast ship" speed="3.65" length="2.34" shape="231.97,209.13 232.05,210.57 231.66,211.37"/>
    </edge>
    <edge id=":16075689_11" function="internal">
        <lane id=":16075689_11_0" index="0" disallow="pedestrian tram rail_urban rail rail_electric rail_fast ship" speed="6.52" length="4.18" shape="236.11,211.15 237.58,210.88 239.91,209.54"/>
    </edge>
    <edge id=":16075689_12" function="internal">
        <lane id=":16075689_12_0" index="0" disallow="pedestrian tram rail_urban rail rail_electric rail_fast ship" speed="3.65" length="2.34" shape="231.66,211.37 230.78,211.53 229.42,211.05"/>
    </edge>
    <edge id=":16075689_c0" function="crossing" crossingEdges="-30502170#2 30502170#0">
        <lane id=":16075689_c0_0" index="0" allow="pedestrian" speed="1.00" length="6.40" width="4.00" shape="240.07,217.27 234.93,221.08"/>
    </edge>
    <edge id=":16075689_c1" function="crossing" crossingEdges="3269845#0 -3269845#3">
        <lane id=":16075689_c1_0" index="0" allow="pedestrian" speed="1.00" length="6.40" width="4.00" shape="237.35,209.46 241.18,214.58"/>
    </edge>
    <edge id=":16075689_c2" function="crossing" crossingEdges="30502170#3 -30502170#4">
        <lane id=":16075689_c2_0" index="0" allow="pedestrian" speed="1.00" length="6.40" width="4.00" shape="229.34,213.61 234.45,209.76"/>
    </edge>
    <edge id=":16075689_w0" function="walkingarea">
        <lane id=":16075689_w0_0" index="0" allow="pedestrian" speed="1.00" length="8.42" width="4.00" shape="230.54,215.21 228.14,212.01 225.74,213.82 233.71,224.48 236.12,222.69 233.74,219.48"/>
    </edge>
    <edge id=":16075689_w1" function="walkingarea">
        <lane id=":16075689_w1_0" index="0" allow="pedestrian" speed="1.00" length="3.29" width="4.00" shape="241.26,218.88 243.67,217.09 243.98,214.99 242.78,213.39 241.74,214.28 241.01,215.19 240.60,216.10 240.50,217.02 240.72,217.95"/>
    </edge>
    <edge id=":16075689_w2" function="walkingarea">
        <lane id=":16075689_w2_0" index="0" allow="pedestrian" speed="1.00" length="3.29" width="4.00" shape="238.95,208.26 237.75,206.66 235.64,206.36 233.25,208.16 233.99,208.94 234.81,209.41 235.72,209.58 236.71,209.44 237.79,209.00"/>
    </edge>
    <edge id=":16574841_0" function="internal">
        <lane id=":16574841_0_0" index="0" disallow="pedestrian tram rail_urban rail rail_electric rail_fast ship" speed="3.65" length="4.67" shape="64.04,175.88 64.20,174.45 64.72,173.72 65.62,173.71 66.88,174.40"/>
    </edge>
    <edge id=":16574841_w0" function="walkingarea">
        <lane id=":16574841_w0_0" index="0" allow="pedestrian" speed="1.00" length="8.40" width="2.00" shape="68.30,173.66 70.07,172.74 60.85,177.54 62.62,176.62"/>
    </edge>
    <edge id=":1836980728_0" function="internal">
        <lane id=":1836980728_0_0" index="0" disallow="pedestrian tram rail_urban rail rail_electric rail_fast ship" speed="13.89" length="2.87" shape="216.23,192.95 214.57,190.61"/>
    </edge>
    <edge id=":1836980728_1" function="internal">
        <lane id=":1836980728_1_0" index="0" disallow="pedestrian tram rail_urban rail rail_electric rail_fast ship" speed="13.89" length="2.99" shape="217.15,188.71 218.88,191.15"/>
    </edge>
    <edge id=":1836980728_c0" function="crossing" crossingEdges="-30502170#4 30502170#3">
        <lane id=":1836980728_c0_0" index="0" allow="pedestrian" speed="1.00" length="6.40" width="4.00" shape="219.07,188.60 213.79,192.20"/>
    </edge>
    <edge id=":1836980728_w0" function="walkingarea">
        <lane id=":1836980728_w0_0" index="0" allow="pedestrian" speed="1.00" length="2.50" width="4.00" shape="212.43,195.54 214.91,193.85 212.66,190.55"/>
    </edge>
    <edge id=":1836980728_w1" function="walkingarea">
        <lane id=":1836980728_w1_0" index="0" allow="pedestrian" speed="1.00" length="2.50" width="4.00" shape="217.95,186.94 220.20,190.25 222.68,188.56"/>
    </edge>
    <edge id=":2071706_0" function="internal">
        <lane id=":2071706_0_0" index="0" disallow="pedestrian tram rail_urban rail rail_electric rail_fast ship" speed="3.65" length="4.67" shape="1015.73,77.28 1017.17,77.21 1017.97,77.62 1018.12,78.50 1017.63,79.86"/>
    </edge>
    <edge id=":2071706_w0" function="walkingarea">
        <lane id=":2071706_w0_0" index="0" allow="pedestrian" speed="1.00" length="8.40" width="2.00" shape="1018.58,81.15 1019.76,82.76 1013.60,74.38 1014.78,75.99"/>
    </edge>
    <edge id=":2071708_0" function="internal">
        <lane id=":2071708_0_0" index="0" disallow="pedestrian tram rail_urban rail rail_electric rail_fast ship" speed="8.33" length="14.14" shape="611.95,378.19 600.43,386.39"/>
    </edge>
    <edge id=":2071708_1" function="internal">
        <lane id=":2071708_1_0" index="0" disallow="pedestrian tram rail_urban rail rail_electric rail_fast ship" speed="8.06" length="14.06" shape="611.95,378.19 608.53,379.88 605.36,380.08 602.42,378.79 599.73,376.01"/>
    </edge>
    <edge id=":2071708_2" function="internal">
        <lane id=":2071708_2_0" index="0" disallow="pedestrian tram rail_urban rail rail_electric rail_fast ship" speed="3.65" length="4.67" shape="611.95,378.19 610.51,378.21 609.73,377.78 609.61,376.89 610.14,375.56"/>
    </edge>
    <edge id=":2071708_3" function="internal">
        <lane id=":2071708_3_0" index="0" disallow="pedestrian tram rail_urban rail rail_electric rail_fast ship" speed="6.57" length="9.02" shape="602.31,374.12 604.05,375.91 605.93,376.75 607.96,376.63 610.14,375.56"/>
    </edge>
    <edge id=":2071708_4" function="internal">
        <lane id=":2071708_4_0" index="0" disallow="pedestrian tram rail_urban rail rail_electric rail_fast ship" speed="8.00" length="14.14" shape="602.31,374.12 604.13,377.54 604.43,380.72 603.19,383.67 600.43,386.39"/>
    </edge>
    <edge id=":2071708_5" function="internal">
        <lane id=":2071708_5_0" index="0" disallow="pedestrian tram rail_urban rail rail_electric rail_fast ship" speed="3.65" length="4.67" shape="602.31,374.12 602.38,375.56 601.97,376.36 601.08,376.51 599.73,376.01"/>
    </edge>
    <edge id=":2071708_6" function="internal">
        <lane id=":2071708_6_0" index="0" disallow="pedestrian tram rail_urban rail rail_electric rail_fast ship" speed="6.50" length="8.99" shape="598.53,383.81 600.29,382.09 601.08,380.21 600.89,378.18 599.73,376.01"/>
    </edge>
    <edge id=":2071708_7" function="internal">
        <lane id=":2071708_7_0" index="0" disallow="pedestrian tram rail_urban rail rail_electric rail_fast ship" speed="8.33" length="14.25" shape="598.53,383.81 610.14,375.56"/>
    </edge>
    <edge id=":2071708_8" function="internal">
        <lane id=":2071708_8_0" index="0" disallow="pedestrian tram rail_urban rail rail_electric rail_fast ship" speed="3.65" length="4.67" shape="598.53,383.81 599.97,383.74 600.77,384.15 600.92,385.03 600.43,386.39"/>
    </edge>
    <edge id=":2071708_c0" function="crossing" crossingEdges="3269864#10 -3269864#10">
        <lane id=":2071708_c0_0" index="0" allow="pedestrian" speed="1.00" length="6.40" width="4.00" shape="607.59,375.37 611.21,380.65"/>
    </edge>
    <edge id=":2071708_c1" function="crossing" crossingEdges="-1163677548#12 1086217493#5">
        <lane id=":2071708_c1_0" index="0" allow="pedestrian" speed="1.00" length="6.40" width="4.00" shape="599.62,378.57 604.79,374.79"/>
    </edge>
    <edge id=":2071708_c2" function="crossing" crossingEdges="Bam_south_up Bam_south_down">
        <lane id=":2071708_c2_0" index="0" allow="pedestrian" speed="1.00" length="6.40" width="4.00" shape="602.99,386.49 599.19,381.34"/>
    </edge>
    <edge id=":2071708_w0" function="walkingarea">
        <lane id=":2071708_w0_0" index="0" allow="pedestrian" speed="1.00" length="8.80" width="4.00" shape="604.60,385.30 601.38,387.68 602.57,389.29 613.99,381.16 612.86,379.51 609.56,381.78"/>
    </edge>
    <edge id=":2071708_w1" function="walkingarea">
        <lane id=":2071708_w1_0" index="0" allow="pedestrian" speed="1.00" length="3.34" width="4.00" shape="609.24,374.24 608.11,372.59 605.22,372.00 603.61,373.18 604.43,374.12 605.30,374.75 606.21,375.08 607.17,375.10 608.18,374.82"/>
    </edge>
    <edge id=":2071708_w2" function="walkingarea">
        <lane id=":2071708_w2_0" index="0" allow="pedestrian" speed="1.00" length="3.28" width="4.00" shape="598.44,376.96 596.82,378.14 596.40,380.91 597.58,382.52 598.50,381.71 599.10,380.86 599.40,379.95 599.39,379.00 599.07,378.00"/>
    </edge>
    <edge id=":2071709_0" function="internal">
        <lane id=":2071709_0_0" index="0" disallow="pedestrian tram rail_urban rail rail_electric rail_fast ship" speed="6.51" length="9.07" shape="487.13,221.87 485.29,219.90 483.39,218.93 481.42,218.95 479.39,219.98"/>
    </edge>
    <edge id=":2071709_1" function="internal">
        <lane id=":2071709_1_0" index="0" disallow="pedestrian tram rail_urban rail rail_electric rail_fast ship" speed="8.33" length="15.53" shape="487.13,221.87 478.02,209.30"/>
    </edge>
    <edge id=":2071709_2" function="internal">
        <lane id=":2071709_2_0" index="0" disallow="pedestrian tram rail_urban rail rail_electric rail_fast ship" speed="8.05" length="14.31" shape="487.13,221.87 485.14,218.27 484.69,214.98 485.76,212.01 488.36,209.36"/>
    </edge>
    <edge id=":2071709_3" function="internal">
        <lane id=":2071709_3_0" index="0" disallow="pedestrian tram rail_urban rail rail_electric rail_fast ship" speed="3.65" length="4.67" shape="487.13,221.87 487.07,220.43 487.48,219.64 488.36,219.49 489.71,219.99"/>
    </edge>
    <edge id=":2071709_4" function="internal">
        <lane id=":2071709_4_0" index="0" disallow="pedestrian tram rail_urban rail rail_electric rail_fast ship" speed="6.57" length="5.00" shape="490.26,211.93 488.66,213.59 488.04,215.49 488.15,216.18"/>
    </edge>
    <edge id=":2071709_5" function="internal">
        <lane id=":2071709_5_0" index="0" disallow="pedestrian tram rail_urban rail rail_electric rail_fast ship" speed="13.89" length="13.53" shape="490.26,211.93 479.39,219.98"/>
    </edge>
    <edge id=":2071709_6" function="internal">
        <lane id=":2071709_6_0" index="0" disallow="pedestrian tram rail_urban rail rail_electric rail_fast ship" speed="8.00" length="5.52" shape="490.26,211.93 486.97,213.64 485.16,213.71"/>
    </edge>
    <edge id=":2071709_7" function="internal">
        <lane id=":2071709_7_0" index="0" disallow="pedestrian tram rail_urban rail rail_electric rail_fast ship" speed="3.65" length="2.34" shape="490.26,211.93 488.82,212.00 488.03,211.59"/>
    </edge>
    <edge id=":2071709_16" function="internal">
        <lane id=":2071709_16_0" index="0" disallow="pedestrian tram rail_urban rail rail_electric rail_fast ship" speed="6.57" length="4.18" shape="488.15,216.18 488.39,217.62 489.71,219.99"/>
    </edge>
    <edge id=":2071709_17" function="internal">
        <lane id=":2071709_17_0" index="0" disallow="pedestrian tram rail_urban rail rail_electric rail_fast ship" speed="8.00" length="8.79" shape="485.16,213.71 483.83,213.77 480.84,212.33 478.02,209.30"/>
    </edge>
    <edge id=":2071709_18" function="internal">
        <lane id=":2071709_18_0" index="0" disallow="pedestrian tram rail_urban rail rail_electric rail_fast ship" speed="3.65" length="2.34" shape="488.03,211.59 487.87,210.71 488.36,209.36"/>
    </edge>
    <edge id=":2071709_8" function="internal">
        <lane id=":2071709_8_0" index="0" disallow="pedestrian tram rail_urban rail rail_electric rail_fast ship" speed="6.50" length="9.10" shape="480.61,207.44 482.45,209.43 484.35,210.41 486.32,210.39 488.36,209.36"/>
    </edge>
    <edge id=":2071709_9" function="internal">
        <lane id=":2071709_9_0" index="0" disallow="pedestrian tram rail_urban rail rail_electric rail_fast ship" speed="8.33" length="15.50" shape="480.61,207.44 489.71,219.99"/>
    </edge>
    <edge id=":2071709_10" function="internal">
        <lane id=":2071709_10_0" index="0" disallow="pedestrian tram rail_urban rail rail_electric rail_fast ship" speed="8.07" length="14.32" shape="480.61,207.44 482.59,211.06 483.05,214.36 481.98,217.33 479.39,219.98"/>
    </edge>
    <edge id=":2071709_11" function="internal">
        <lane id=":2071709_11_0" index="0" disallow="pedestrian tram rail_urban rail rail_electric rail_fast ship" speed="3.65" length="4.67" shape="480.61,207.44 480.66,208.88 480.25,209.67 479.36,209.81 478.02,209.30"/>
    </edge>
    <edge id=":2071709_12" function="internal">
        <lane id=":2071709_12_0" index="0" disallow="pedestrian tram rail_urban rail rail_electric rail_fast ship" speed="6.59" length="5.04" shape="477.49,217.40 479.08,215.74 479.70,213.84 479.58,213.11"/>